.MODEL 1N4004 D(IS=403P N=1.57 BV=400 IBV=10U RS=43.2M CJO=52.8P VJ=300M M=272M FC=500M TT=5.05U EG=1.11 XTI=3 KF=0 AF=1 )
*.model 1N4001 D(Is=14.11n N=1.984 Rs=33.89m Ikf=94.81 Xti=3 Eg=1.11 Cjo=25.89p M=.44 Vj=.3245 Fc=.5 Bv=75 Ibv=10u Tt=5.7u Iave=1 Vpk=50 mfg=GI type=silicon)
