Version 4
SHEET 1 880 680
WIRE 144 80 48 80
WIRE 272 80 208 80
WIRE 368 80 272 80
WIRE 48 128 48 80
WIRE 272 128 272 80
WIRE 368 128 368 80
WIRE 48 240 48 208
WIRE 272 240 272 208
WIRE 272 240 48 240
WIRE 368 240 368 192
WIRE 368 240 272 240
WIRE 48 256 48 240
FLAG 48 256 0
SYMBOL voltage 48 112 R0
WINDOW 3 24 152 Left 2
WINDOW 123 24 124 Left 2
WINDOW 39 0 0 Left 2
SYMATTR InstName V1
SYMATTR Value SINE(0 4 60)
SYMATTR Value2 AC 8 0
SYMBOL diode 144 96 R270
WINDOW 0 32 32 VTop 2
WINDOW 3 0 32 VBottom 2
SYMATTR InstName D1
SYMATTR Value 1N4004
SYMBOL res 256 112 R0
SYMATTR InstName R1
SYMATTR Value {R}
SYMBOL cap 352 128 R0
SYMATTR InstName C1
SYMATTR Value {C}
TEXT 200 256 Left 2 !.include 1N4004.txt
TEXT 200 280 Left 2 !.step param R list 470 1k 10k 100k
TEXT 200 304 Left 2 !.step param C list 0 10u 22u 47u
TEXT 24 280 Left 2 !.tran 0.04
