Version 4
SHEET 1 880 680
WIRE 272 -64 208 -64
WIRE 208 -48 208 -64
WIRE 208 32 16 32
WIRE 272 80 272 -64
WIRE 272 80 64 80
WIRE 352 80 272 80
WIRE 352 224 352 160
WIRE 352 224 304 224
WIRE 464 224 352 224
WIRE 640 224 528 224
WIRE -80 272 -144 272
WIRE 64 272 64 160
WIRE 64 272 -16 272
WIRE 240 272 64 272
WIRE -144 320 -144 272
WIRE 64 368 64 272
WIRE 304 368 304 320
WIRE 352 368 304 368
WIRE 496 368 352 368
WIRE -144 448 -144 400
WIRE 64 448 -144 448
WIRE 144 448 64 448
WIRE 240 448 144 448
WIRE 352 448 240 448
WIRE 496 448 496 432
WIRE 496 448 352 448
WIRE 640 448 496 448
WIRE 16 496 16 32
WIRE 144 496 144 448
WIRE 144 496 16 496
WIRE 240 496 240 448
FLAG 240 496 0
SYMBOL res 48 64 R0
SYMATTR InstName R1
SYMATTR Value 68k
SYMBOL res 336 64 R0
SYMATTR InstName R2
SYMATTR Value 3.9k
SYMBOL res 336 352 R0
SYMATTR InstName R3
SYMATTR Value 1k
SYMBOL res 48 352 R0
SYMATTR InstName R4
SYMATTR Value {R}
SYMBOL npn 240 224 R0
SYMATTR InstName Q1
SYMATTR Value 2N3904
SYMBOL voltage 208 -64 R0
WINDOW 123 0 0 Left 2
WINDOW 39 0 0 Left 2
SYMATTR InstName V1
SYMATTR Value 10
SYMBOL cap -16 256 R90
WINDOW 0 0 32 VBottom 2
WINDOW 3 32 32 VTop 2
SYMATTR InstName C1
SYMATTR Value 10µ
SYMBOL cap 528 208 R90
WINDOW 0 0 32 VBottom 2
WINDOW 3 32 32 VTop 2
SYMATTR InstName C2
SYMATTR Value 10µ
SYMBOL cap 512 432 R180
WINDOW 0 24 56 Left 2
WINDOW 3 24 8 Left 2
SYMATTR InstName C3
SYMATTR Value 10µ
SYMBOL voltage -144 304 R0
WINDOW 123 0 0 Left 2
WINDOW 39 0 0 Left 2
SYMATTR InstName V2
SYMATTR Value SINE(0 0.01 1k)
TEXT 312 504 Left 2 !.step param R list 1k 5k 15k 25k
TEXT 16 528 Left 2 !.tran 0 3.01 3 10u
